*Heading
** Job name: Job-9 Model name: Model-1
** Generated by: Abaqus/CAE 2021
*Preprint, echo=NO, model=NO, history=NO, contact=NO
**
** PARTS
**
*Part, name=Part-1
*Node
      1,   0.06166666,           0.
      2, 0.0549999997,           0.
      3, 0.0549999997, -0.00999999978
      4,   0.06166666, -0.00999999978
      5,  0.041983787,           0.
      6,  0.041983787, -0.00626093103
      7,       0.0285,           0.
      8,       0.0285, -0.00499999989
      9,      -0.0285,           0.
     10,      -0.0285, -0.00499999989
     11,  -0.06166666,           0.
     12, -0.0549999997,           0.
     13, -0.0549999997, 0.00999999978
     14,  -0.06166666, 0.00999999978
     15, -0.041983787,           0.
     16, -0.041983787, -0.00626093103
     17, -0.041983787, 0.00626093103
     18,   0.06166666, 0.00999999978
     19, 0.0549999997, 0.00999999978
     20,  0.041983787, 0.00626093103
** ... 6363 like lines cut
*Element, type=CPS8R
 1,    1,   25,  497,   50, 2177, 2178, 2179, 2180
 2,   25,   26,  498,  497, 2181, 2182, 2183, 2178
 3,   26,   27,  499,  498, 2184, 2185, 2186, 2182
 4,   27,   28,  500,  499, 2187, 2188, 2189, 2185
 5,   28,   29,  501,  500, 2190, 2191, 2192, 2188
 6,   29,   30,  502,  501, 2193, 2194, 2195, 2191
 7,   30,    2,   31,  502, 2196, 2197, 2198, 2194
 8,   50,  497,  503,   49, 2179, 2199, 2200, 2201
 9,  497,  498,  504,  503, 2183, 2202, 2203, 2199
10,  498,  499,  505,  504, 2186, 2204, 2205, 2202
11,  499,  500,  506,  505, 2189, 2206, 2207, 2204
12,  500,  501,  507,  506, 2192, 2208, 2209, 2206
13,  501,  502,  508,  507, 2195, 2210, 2211, 2208
14,  502,   31,   32,  508, 2198, 2212, 2213, 2210
15,   49,  503,  509,   48, 2200, 2214, 2215, 2216
16,  503,  504,  510,  509, 2203, 2217, 2218, 2214
17,  504,  505,  511,  510, 2205, 2219, 2220, 2217
18,  505,  506,  512,  511, 2207, 2221, 2222, 2219
19,  506,  507,  513,  512, 2209, 2223, 2224, 2221
20,  507,  508,  514,  513, 2211, 2225, 2226, 2223
** ... 2012 like lines cut
*Nset, nset=Set-1, generate
    1,  6383,     1
*Elset, elset=Set-1, generate
    1,  2032,     1
** Section: Section-1
*Solid Section, elset=Set-1, material=Material-1
,
*End Part
**  
**
** ASSEMBLY
**
*Assembly, name=Assembly
**  
*Instance, name=Part-1-1, part=Part-1
*End Instance
**  
*Nset, nset=Set-1, instance=Part-1-1
   11,   14,   24,  255,  256,  257,  258,  259,  260,  261,  484,  485,  486,  487,  488,  489
  490, 3752, 3773, 3788, 3803, 3818, 3833, 3848, 3863, 6284, 6298, 6312, 6326, 6340, 6354, 6368
 6382,
*Elset, elset=Set-1, instance=Part-1-1
  737,  744,  751,  758,  765,  772,  779,  786, 1983, 1990, 1997, 2004, 2011, 2018, 2025, 2032
*Nset, nset=Set-2, instance=Part-1-1
    1,    4,   18,   44,   45,   46,   47,   48,   49,   50,  328,  329,  330,  331,  332,  333
  334, 2180, 2201, 2216, 2231, 2246, 2261, 2276, 2291, 4365, 4380, 4395, 4410, 4425, 4440, 4455
 4470,
*Elset, elset=Set-2, instance=Part-1-1
    1,    8,   15,   22,   29,   36,   43,   50, 1023, 1030, 1037, 1044, 1051, 1058, 1065, 1072
*Nset, nset=Set-3, instance=Part-1-1
 24,
*Nset, nset=Set-4, instance=Part-1-1
 11,
*End Assembly
** 
** MATERIALS
** 
*Material, name=Material-1
*Elastic
 7.24e+10, 0.33
** ----------------------------------------------------------------
** 
** STEP: Step-1
** 
*Step, name=Step-1, nlgeom=NO, perturbation
*Static
** 
** BOUNDARY CONDITIONS
** 
** Name: BC-1 Type: Displacement/Rotation
*Boundary
Set-1, 1, 1
Set-1, 2, 2
** Name: BC-2 Type: Displacement/Rotation
*Boundary
Set-2, 1, 1, 0.01
** 
** OUTPUT REQUESTS
** 
** 
** FIELD OUTPUT: F-Output-1
** 
*Output, field, variable=PRESELECT
** 
** HISTORY OUTPUT: H-Output-1
** 
*Output, history, variable=PRESELECT
*End Step
